Version 4.1
SHEET 1 1244 680
WIRE 208 -480 -160 -480
WIRE -160 -448 -160 -480
WIRE -160 -448 -464 -448
WIRE -160 -416 -160 -448
WIRE 48 -416 -64 -416
WIRE 96 -416 48 -416
WIRE 208 -416 160 -416
WIRE 272 -416 208 -416
WIRE 368 -416 336 -416
WIRE 464 -416 368 -416
WIRE 480 -416 464 -416
WIRE -464 -400 -464 -448
WIRE -224 -368 -336 -368
WIRE -64 -320 -64 -416
WIRE -64 -320 -160 -320
WIRE -336 -288 -336 -368
WIRE -656 -144 -832 -144
WIRE -512 -144 -512 -320
WIRE -512 -144 -576 -144
WIRE -336 -144 -336 -208
WIRE -336 -144 -512 -144
WIRE 480 -144 480 -416
WIRE 480 -144 416 -144
WIRE -1184 -96 -1248 -96
WIRE -1072 -96 -1120 -96
WIRE -960 -96 -1008 -96
WIRE -896 -96 -960 -96
WIRE -832 -96 -832 -144
WIRE -832 -80 -832 -96
WIRE -576 -80 -832 -80
WIRE -320 -80 -496 -80
WIRE -304 -80 -320 -80
WIRE -224 -80 -304 -80
WIRE -112 -80 -224 -80
WIRE -960 -64 -960 -96
WIRE -304 -64 -304 -80
WIRE -832 -32 -832 -80
WIRE 416 -32 416 -144
WIRE -1248 48 -1248 -96
WIRE -960 48 -960 0
WIRE -960 48 -1248 48
WIRE -832 48 -960 48
WIRE 272 112 160 112
WIRE -112 128 -112 -80
WIRE 192 128 -112 128
WIRE 192 144 192 128
WIRE 272 144 192 144
WIRE 416 144 416 48
WIRE 416 144 336 144
WIRE 608 144 416 144
WIRE 768 144 608 144
WIRE 864 144 848 144
WIRE 896 144 864 144
WIRE -512 160 -592 160
WIRE -384 160 -512 160
WIRE -256 160 -304 160
WIRE -128 160 -176 160
WIRE 160 160 160 112
WIRE 160 160 -128 160
WIRE 272 176 208 176
WIRE -256 192 -256 160
WIRE -128 192 -128 160
FLAG -592 240 0
FLAG -512 160 Vin
FLAG -128 256 0
FLAG -256 256 0
FLAG 336 112 0
FLAG 208 256 0
FLAG 608 144 Vout
FLAG 336 176 0
FLAG 896 208 0
FLAG -304 0 0
FLAG -320 -80 Vfilter
FLAG -224 0 0
FLAG 864 144 vo
FLAG -1184 -80 0
FLAG -1072 -80 0
FLAG -960 112 0
FLAG -896 -80 0
FLAG 48 -336 0
FLAG 368 -352 0
FLAG 464 -416 Vhi
FLAG -464 -304 0
FLAG 416 224 0
SYMBOL voltage -592 144 R0
WINDOW 123 0 0 Left 0
WINDOW 39 0 0 Left 0
SYMATTR InstName V2
SYMATTR Value PULSE(0 5 1n 1n 1n {dc} 20m)
SYMBOL res -160 144 R90
WINDOW 0 0 56 VBottom 2
WINDOW 3 32 56 VTop 2
SYMATTR InstName R1
SYMATTR Value 100k
SYMBOL cap -144 192 R0
SYMATTR InstName C1
SYMATTR Value 330n
SYMBOL res -288 144 R90
WINDOW 0 0 56 VBottom 2
WINDOW 3 32 56 VTop 2
SYMATTR InstName R2
SYMATTR Value 200k
SYMBOL cap -272 192 R0
SYMATTR InstName C2
SYMATTR Value 330n
SYMBOL LM311 304 144 R0
SYMATTR InstName U1
SYMBOL voltage 208 160 R0
SYMATTR InstName V1
SYMATTR Value 5
SYMBOL res 864 128 R90
WINDOW 0 0 56 VBottom 2
WINDOW 3 32 56 VTop 2
SYMATTR InstName R5
SYMATTR Value 10Meg
SYMBOL cap 880 144 R0
SYMATTR InstName C3
SYMATTR Value 1n
SYMBOL res -480 -96 R90
WINDOW 0 0 56 VBottom 2
WINDOW 3 32 56 VTop 2
SYMATTR InstName R6
SYMATTR Value 22k
SYMBOL cap -320 -64 R0
SYMATTR InstName C4
SYMATTR Value 100n
SYMBOL res -240 -96 R0
SYMATTR InstName R7
SYMATTR Value 4.23k
SYMBOL Digital\\inv -1184 -160 R0
WINDOW 3 8 60 Invisible 2
SYMATTR Value Vhigh=5 Vlow=0 Trise=20n Tfall=20n Td=10n
SYMATTR InstName A1
SYMBOL Digital\\inv -1072 -160 R0
WINDOW 3 8 60 Invisible 2
SYMATTR Value Vhigh=5 td=10n trise=20n tfall=20n
SYMATTR InstName A2
SYMBOL Digital\\inv -896 -160 R0
WINDOW 3 8 60 Invisible 2
SYMATTR Value Vhigh=5 Vlow=0 Trise=20n Tfall=20n Td=10n
SYMATTR InstName A3
SYMBOL cap -976 48 R0
SYMATTR InstName C5
SYMATTR Value 1n
SYMBOL res -848 -48 R0
SYMATTR InstName R8
SYMATTR Value 100k
SYMBOL cap -976 -64 R0
SYMATTR InstName C6
SYMATTR Value 1n
SYMBOL cap 192 -480 R0
SYMATTR InstName C7
SYMATTR Value 1µ
SYMBOL diode 272 -400 R270
WINDOW 0 32 32 VTop 2
WINDOW 3 0 32 VBottom 2
SYMATTR InstName D1
SYMBOL cap 352 -416 R0
SYMATTR InstName C8
SYMATTR Value 10µ
SYMBOL diode 96 -400 R270
WINDOW 0 32 32 VTop 2
WINDOW 3 0 32 VBottom 2
SYMATTR InstName D2
SYMBOL voltage 48 -432 R0
SYMATTR InstName V6
SYMATTR Value 5
SYMBOL res -560 -160 R90
WINDOW 0 0 56 VBottom 2
WINDOW 3 32 56 VTop 2
SYMATTR InstName R9
SYMATTR Value 100
SYMBOL pnp -224 -416 R0
SYMATTR InstName Q1
SYMATTR Value 2N3906
SYMBOL res 400 -48 R0
SYMATTR InstName R10
SYMATTR Value 5k
SYMBOL nmos -512 -400 R0
SYMATTR InstName M1
SYMATTR Value 2N7000KL
SYMATTR Prefix X
SYMBOL res -352 -304 R0
SYMATTR InstName R11
SYMATTR Value 10k
SYMBOL res 400 128 R0
SYMATTR InstName R3
SYMATTR Value 1Meg
TEXT -16 336 Left 2 !.lib C:\\Users\\bubba\\Downloads\\LM741.txt
TEXT -32 360 Left 2 !.tran 1
TEXT -40 400 Left 2 !.step param dc 1m 2m .25m
TEXT -48 448 Left 2 !.lib C:\\Users\\bubba\\Downloads\\2N7000KL.txt
